Version 4
SHEET 1 2548 1268
WIRE 608 -720 400 -720
WIRE 672 -720 608 -720
WIRE -704 -704 -736 -704
WIRE 144 -704 -704 -704
WIRE 400 -672 400 -720
WIRE 144 -608 144 -704
WIRE -368 -576 -624 -576
WIRE -368 -544 -368 -576
WIRE -320 -544 -368 -544
WIRE -128 -528 -256 -528
WIRE 96 -528 -64 -528
WIRE 400 -528 400 -592
WIRE -320 -512 -368 -512
WIRE -736 -480 -736 -704
WIRE -96 -448 -96 -512
WIRE 144 -448 144 -512
WIRE 144 -448 -96 -448
WIRE -368 -432 -368 -512
WIRE -368 -432 -464 -432
WIRE 144 -400 144 -448
WIRE 240 -400 144 -400
WIRE 368 -400 320 -400
WIRE 544 -400 448 -400
WIRE 640 -400 544 -400
WIRE 704 -400 640 -400
WIRE 832 -400 704 -400
WIRE 544 -368 544 -400
WIRE 144 -320 144 -400
WIRE 704 -320 704 -400
WIRE 544 -288 544 -304
WIRE 832 -224 832 -400
WIRE 144 -160 144 -256
WIRE 544 -160 544 -208
WIRE 624 -160 544 -160
WIRE 704 -160 704 -240
WIRE 704 -160 624 -160
WIRE -736 -128 -736 -400
WIRE 624 -128 624 -160
WIRE 64 -48 16 -48
WIRE 224 -48 144 -48
WIRE 352 -48 288 -48
WIRE 352 32 352 -48
WIRE 480 32 352 32
WIRE 704 32 560 32
WIRE 832 32 832 -144
WIRE 832 32 704 32
WIRE 352 80 352 32
WIRE 352 80 80 80
WIRE -624 96 -624 -576
WIRE -416 96 -624 96
WIRE -128 96 -352 96
WIRE 16 96 16 -48
WIRE 16 96 -128 96
WIRE 64 96 16 96
WIRE 288 112 80 112
WIRE 288 160 288 112
WIRE 288 272 288 240
FLAG -736 -128 0
FLAG 624 -128 0
FLAG 640 -400 out
FLAG 144 -160 0
FLAG -704 -704 dc
FLAG -128 96 d
FLAG 288 272 0
FLAG 400 -528 0
FLAG 608 -720 in
FLAG 704 32 in1
SYMBOL voltage -736 -496 R0
WINDOW 123 0 0 Left 2
WINDOW 39 0 0 Left 2
WINDOW 0 48 32 Left 2
WINDOW 3 48 73 Left 2
SYMATTR InstName V1
SYMATTR Value 10
SYMBOL cap 528 -368 R0
WINDOW 0 -57 7 Left 2
WINDOW 3 -60 42 Left 2
SYMATTR InstName C1
SYMATTR Value 33µ
SYMBOL res 688 -336 R0
SYMATTR InstName R8
SYMATTR Value 1
SYMBOL ind2 224 -384 R270
WINDOW 0 32 56 VTop 2
WINDOW 3 5 56 VBottom 2
SYMATTR InstName L1
SYMATTR Value 10µ
SYMATTR Type ind
SYMBOL res 464 -416 R90
WINDOW 0 0 56 VBottom 2
WINDOW 3 32 56 VTop 2
SYMATTR InstName R1
SYMATTR Value 0.05
SYMBOL res 528 -304 R0
SYMATTR InstName R3
SYMATTR Value 0.1
SYMBOL Control\\sawtooth -496 -432 R0
WINDOW 3 1 100 Bottom 2
WINDOW 123 -2 66 Bottom 2
SYMATTR Value2 f=200k
SYMATTR InstName U2
SYMBOL Control\\comp -288 -528 R0
WINDOW 3 -10 38 Left 2
WINDOW 123 -7 65 Left 2
SYMATTR Value Vhigh=1
SYMATTR Value2 Vlow=0
SYMATTR InstName U3
SYMBOL Control\\idiode 160 -256 R180
WINDOW 0 -42 64 Left 2
WINDOW 38 -78 30 Left 2
WINDOW 3 54 36 Left 2
WINDOW 123 45 6 Left 2
SYMATTR InstName U7
SYMBOL voltage 288 144 M0
WINDOW 123 0 0 Left 0
WINDOW 39 0 0 Left 0
WINDOW 0 -107 32 Left 2
WINDOW 3 -69 70 Left 2
SYMATTR InstName Vref1
SYMATTR Value 5
SYMBOL res 160 -64 R90
WINDOW 0 0 56 VBottom 2
WINDOW 3 32 56 VTop 2
SYMATTR InstName R2
SYMATTR Value 1.81k
SYMBOL cap 288 -64 R90
WINDOW 0 0 32 VBottom 2
WINDOW 3 32 32 VTop 2
SYMATTR InstName C2
SYMATTR Value 10n
SYMBOL res 576 16 R90
WINDOW 0 0 56 VBottom 2
WINDOW 3 32 56 VTop 2
SYMATTR InstName R4
SYMATTR Value 1.81k
SYMBOL MyOpamp 96 96 R180
WINDOW 39 57 -98 Center 2
WINDOW 40 52 -66 Center 2
WINDOW 0 16 28 Left 2
WINDOW 38 15 -34 Left 2
SYMATTR SpiceLine2 Ao=1e6 FBW=10e6
SYMATTR InstName U5
SYMBOL nmos 96 -608 R0
SYMATTR InstName M1
SYMATTR Value IRFZ48Z
SYMBOL Control\\driver -96 -528 R0
WINDOW 3 41 44 Bottom 2
SYMATTR Value k=15
SYMATTR InstName U4
SYMBOL voltage 832 -240 R0
WINDOW 123 0 0 Left 0
WINDOW 39 0 0 Left 0
SYMATTR InstName V3
SYMATTR Value SINE(0 0.1 {Freq})
SYMBOL Misc\\Epoly 400 -688 R0
WINDOW 0 48 44 Left 2
WINDOW 3 41 72 Left 2
SYMATTR InstName Eb1
SYMATTR Value value={-V(in1)}
SYMBOL Control\\limiter -384 96 R180
WINDOW 0 19 44 Bottom 2
WINDOW 38 38 -16 Bottom 2
WINDOW 3 39 -42 Bottom 2
WINDOW 123 40 -70 Bottom 2
SYMATTR InstName U1
SYMATTR Value vth=0.8
TEXT 1120 -240 Left 2 !.measure Aavg              avg       V(out)                                                                ; average output voltage\n.measure Bavg              avg       V(in)                                                                   ; average input signal\n.measure Are                  avg       2*(V(out)-Aavg)*cos(360*Freq*time)      ; A real part\n.measure Aim                 avg       2*(V(out)-Aavg)*sin(360*Freq*time)        ; A imag part\n.measure Bre                  avg       2*(V(in)-Bavg)*cos(360*Freq*time)         ; B real part\n.measure Bim                 avg        2*(V(in)-Bavg)*sin(360*Freq*time)          ; B imag part\n.measure Amag             param   hypot(Are,Aim)                                              ; A magnitude\n.measure Bmag             param   hypot(Bre,Bim)                                              ; B magnitude\n.measure Aphi                param   atan2(Aim, Are)                                             ; A phase\n.measure Bphi                param   atan2(Bim, Bre)                                             ; B phase\n.measure GainMag       param    20*log10(Amag/Bmag)                              ; Gain magnitude\n.measure GainPhi          param    Bphi - Aphi                                                       ; Gain phase
TEXT 1600 -392 Left 2 !.save V(out) V(in)\n.option numdgt=15   ; double precision for data\n.option nomarch       ; do not plot marching waveforms
TEXT 1120 -344 Left 2 !.step dec param Freq 100 200k 20
TEXT 1112 -504 Left 2 !.param t0=1m\n.tran 0 {t0+5/Freq} {t0} 0.05u uic
TEXT 1112 -416 Left 2 !.options reltol=1m
