Version 4
SHEET 1 1244 680
WIRE -880 -432 -1056 -432
WIRE -768 -432 -800 -432
WIRE -688 -432 -688 -496
WIRE -688 -432 -768 -432
WIRE -544 -432 -688 -432
WIRE -368 -432 -512 -432
WIRE -240 -432 -288 -432
WIRE -112 -432 -160 -432
WIRE 160 -432 -112 -432
WIRE 352 -432 160 -432
WIRE -112 -400 -112 -432
WIRE -800 -368 -880 -368
WIRE -592 -336 -752 -336
WIRE -528 -336 -528 -416
WIRE -1056 -320 -1056 -432
WIRE -112 -320 -112 -336
WIRE 160 -304 160 -432
WIRE -880 -288 -880 -368
WIRE -768 -288 -768 -432
WIRE -768 -288 -800 -288
WIRE -688 -288 -688 -432
WIRE -592 -272 -592 -336
WIRE -640 -256 -672 -256
WIRE -112 -224 -112 -240
WIRE -864 -208 -864 -240
WIRE -752 -208 -752 -336
WIRE -736 -208 -752 -208
WIRE -816 -192 -816 -240
WIRE 352 -192 352 -432
WIRE -1056 -112 -1056 -240
WIRE -688 -112 -688 -208
WIRE -688 -112 -1056 -112
WIRE -640 -112 -640 -208
WIRE -640 -112 -688 -112
WIRE -592 -112 -592 -192
WIRE -592 -112 -640 -112
WIRE -112 -112 -112 -144
WIRE -112 -112 -592 -112
WIRE 160 -112 160 -224
WIRE 160 -112 -112 -112
WIRE -672 -96 -672 -256
WIRE -1056 -80 -1056 -112
WIRE -1280 112 -1392 112
WIRE -1392 176 -1392 112
WIRE -1280 176 -1280 112
WIRE 272 208 208 208
WIRE -1040 224 -1152 224
WIRE -128 224 -144 224
WIRE -112 224 -128 224
WIRE 48 224 -32 224
WIRE 96 224 48 224
WIRE 144 224 96 224
WIRE -208 240 -304 240
WIRE -656 256 -768 256
WIRE -480 272 -592 272
WIRE -304 272 -304 240
WIRE -304 272 -480 272
WIRE 96 272 96 224
WIRE -1392 288 -1392 256
WIRE -656 288 -720 288
WIRE -128 304 -128 224
WIRE -80 304 -128 304
WIRE 48 304 48 224
WIRE 48 304 -16 304
WIRE -1424 368 -1504 368
WIRE -1280 368 -1280 256
WIRE -1280 368 -1344 368
WIRE -976 368 -1280 368
WIRE -880 368 -976 368
WIRE -720 384 -720 288
WIRE -720 384 -816 384
WIRE -1040 400 -1040 224
WIRE -880 400 -1040 400
WIRE -304 432 -304 272
WIRE -208 432 -304 432
WIRE 272 432 208 432
WIRE -128 448 -144 448
WIRE -112 448 -128 448
WIRE 0 448 -32 448
WIRE 80 448 0 448
WIRE 144 448 80 448
WIRE -1280 480 -1280 368
WIRE -1216 480 -1280 480
WIRE -1056 480 -1136 480
WIRE -720 480 -720 384
WIRE -720 480 -992 480
WIRE -128 528 -128 448
WIRE -96 528 -128 528
WIRE 0 528 0 448
WIRE 0 528 -32 528
WIRE -1504 576 -1504 368
WIRE 352 576 352 -112
WIRE 352 576 -1504 576
FLAG -1056 -80 0
FLAG -528 -336 isense
FLAG -688 -496 sourceHS
FLAG 160 -432 out
FLAG -1056 -432 vin
FLAG -976 368 inv
FLAG -864 -208 pwm_hs
FLAG -816 -192 0
FLAG -672 -96 inv_pwm
FLAG 96 336 0
FLAG 80 512 0
FLAG 272 208 pwm_hs
FLAG 272 432 inv_pwm
FLAG -480 272 pwm
FLAG -1392 288 0
SYMBOL ind -256 -416 R270
WINDOW 0 32 56 VTop 2
WINDOW 3 5 56 VBottom 2
SYMATTR InstName L1
SYMATTR Value {ind}
SYMBOL res -272 -448 R90
WINDOW 0 0 56 VBottom 2
WINDOW 3 32 56 VTop 2
SYMATTR InstName R1
SYMATTR Value {RL}
SYMBOL cap -128 -400 R0
SYMATTR InstName C1
SYMATTR Value {cap1}
SYMBOL res 144 -320 R0
SYMATTR InstName Rload1
SYMATTR Value 1.45
SYMBOL voltage -1056 -336 R0
WINDOW 123 0 0 Left 0
WINDOW 39 -245 1 Left 2
SYMATTR InstName V1
SYMATTR Value 48
SYMBOL Control\\isense -528 -432 R0
SYMATTR InstName U1
SYMBOL irfbsl4310 -624 -240 R0
WINDOW 3 -158 78 Top 2
SYMATTR InstName U2
SYMBOL irfbsl4310 -832 -496 R270
WINDOW 3 -4 -4 VBottom 2
SYMATTR InstName U3
SYMBOL ind -128 -240 R0
SYMATTR InstName ESL1
SYMATTR Value {LC1}
SYMBOL res -128 -336 R0
SYMATTR InstName ESR1
SYMATTR Value {RC1}
SYMBOL res -1120 464 R90
WINDOW 0 0 56 VBottom 2
WINDOW 3 32 56 VTop 2
SYMATTR InstName R2
SYMATTR Value 16k
SYMBOL cap -992 464 R90
WINDOW 0 0 32 VBottom 2
WINDOW 3 32 32 VTop 2
SYMATTR InstName C2
SYMATTR Value 10n
SYMBOL e -896 -288 R270
SYMATTR InstName E1
SYMATTR Value 15
SYMBOL e -592 -288 R0
SYMATTR InstName E2
SYMATTR Value 15
SYMBOL Digital\\buf -208 176 R0
SYMATTR InstName A1
SYMBOL Digital\\buf -208 368 R0
SYMATTR InstName A2
SYMBOL Digital\\buf 144 160 R0
SYMATTR InstName A3
SYMBOL Digital\\buf 144 384 R0
SYMATTR InstName A4
SYMBOL res -16 208 R90
WINDOW 0 0 56 VBottom 2
WINDOW 3 32 56 VTop 2
SYMATTR InstName R3
SYMATTR Value 1k
SYMBOL cap 80 272 R0
SYMATTR InstName C3
SYMATTR Value {td/693}
SYMBOL res -16 432 R90
WINDOW 0 0 56 VBottom 2
WINDOW 3 32 56 VTop 2
SYMATTR InstName R4
SYMATTR Value 1k
SYMBOL cap 64 448 R0
SYMATTR InstName C4
SYMATTR Value {td/693}
SYMBOL diode -16 288 R90
WINDOW 0 0 32 VBottom 2
WINDOW 3 32 32 VTop 2
SYMATTR InstName D1
SYMBOL diode -32 512 R90
WINDOW 0 0 32 VBottom 2
WINDOW 3 32 32 VTop 2
SYMATTR InstName D2
SYMBOL MyOpamp -896 384 M180
WINDOW 39 55 42 Center 2
WINDOW 40 48 -70 Center 2
SYMATTR InstName U4
SYMBOL res -1328 352 R90
WINDOW 0 0 56 VBottom 2
WINDOW 3 32 56 VTop 2
SYMATTR InstName R5
SYMATTR Value 16k
SYMBOL Control\\comp -624 272 M180
WINDOW 3 25 -53 Left 2
WINDOW 123 25 -81 Left 2
SYMATTR InstName U5
SYMATTR Value Vhigh=1
SYMATTR Value2 Vlow=0
SYMBOL Control\\sawtooth -800 256 R0
WINDOW 3 163 -77 Bottom 2
WINDOW 123 0 -68 Bottom 2
SYMATTR InstName U6
SYMATTR Value Vlow=0 Vhigh=12
SYMATTR Value2 f={fs}
SYMBOL Control\\constant -1184 224 R0
WINDOW 3 -2 65 Bottom 2
SYMATTR InstName U7
SYMATTR Value K=12
SYMBOL voltage -1392 160 R0
WINDOW 123 24 124 Left 2
WINDOW 39 0 0 Left 0
SYMATTR InstName V2
SYMATTR Value ""
SYMATTR Value2 AC 0.1
SYMBOL res -1296 160 R0
SYMATTR InstName R6
SYMATTR Value 1
SYMBOL res 336 -208 R0
SYMATTR InstName R7
TEXT 432 -400 Left 2 ;.meas P_s1 avg V(vin,sourceHS)*Ix(U6:D)
TEXT 432 -368 Left 2 ;.meas P_s2 avg V(sourcehs)*Ix(U5:D)
TEXT 432 -448 Left 2 !.param ind=283.1u RL=0.12077301606043182
TEXT 432 -336 Left 2 !.meas P_L_cu avg I(R1)*I(R1)*RL
TEXT 432 -304 Left 2 !.meas Pout avg V(out)*I(Rload)
TEXT 432 -272 Left 2 !.meas Pin avg -V(vin)*I(V1)
TEXT 432 -240 Left 2 !.meas eff(%) param Pout/Pin*100
TEXT 432 -208 Left 2 !.meas vout avg V(out)
TEXT 432 -176 Left 2 !.meas IL avg I(L1)
TEXT 432 -144 Left 2 !.meas tran vout_max max V(out)
TEXT 432 -112 Left 2 !.meas tran vout_min min V(out)
TEXT 432 -80 Left 2 !.meas vout_ripple(%) param (vout_max-vout_min)/vout*100
TEXT 432 -48 Left 2 !.meas tran IL_max max I(L1)
TEXT 432 -16 Left 2 !.meas tran IL_min min I(L1)
TEXT 432 16 Left 2 !.meas IL_ripple(%) param (IL_max-IL_min)/IL*100
TEXT 432 -504 Left 2 !.param td=300n fs=36k
TEXT 432 -480 Left 2 !.param cap1=112u RC1=0.00011140846016432676 LC1=4.389e-08
TEXT 432 56 Left 2 !.meas P_c avg I(Esr)*I(Esr)*RC1
TEXT -1040 136 Left 2 ;.tran 0 25m 15m uic
TEXT -1040 80 Left 2 !.ac dec 101 1 250e3
