Version 4
SHEET 1 2492 1212
WIRE 976 -144 768 -144
WIRE 1040 -144 976 -144
WIRE 768 -96 768 -144
WIRE 768 48 768 -16
WIRE 0 96 -176 96
WIRE 192 96 192 32
WIRE 192 96 80 96
WIRE 336 96 192 96
WIRE 512 96 368 96
WIRE 640 96 592 96
WIRE 768 96 720 96
WIRE 912 96 768 96
WIRE 1040 96 912 96
WIRE 1216 96 1040 96
WIRE 768 128 768 96
WIRE 912 128 912 96
WIRE 352 192 352 112
WIRE -176 208 -176 96
WIRE 80 208 80 160
WIRE 768 224 768 192
WIRE 912 224 912 192
WIRE 1040 224 1040 96
WIRE 192 240 192 96
WIRE 128 320 64 320
WIRE 768 336 768 304
WIRE 912 336 912 304
WIRE -176 416 -176 288
WIRE 192 416 192 320
WIRE 192 416 -176 416
WIRE 768 416 192 416
WIRE 912 416 768 416
WIRE 1040 416 1040 304
WIRE 1040 416 912 416
WIRE -176 448 -176 416
WIRE 96 656 16 656
WIRE 416 656 304 656
WIRE 1024 656 928 656
WIRE 752 672 656 672
WIRE 96 688 -96 688
WIRE 416 688 304 688
WIRE 1024 688 928 688
WIRE 752 704 656 704
WIRE 96 720 -80 720
WIRE 416 720 304 720
WIRE 656 720 656 704
WIRE 1024 720 928 720
WIRE 96 752 48 752
WIRE 416 752 304 752
WIRE 752 752 656 752
WIRE 1024 752 928 752
WIRE 656 768 656 752
WIRE 1024 768 1024 752
WIRE 416 784 416 752
WIRE 1216 784 1216 96
WIRE -384 800 -464 800
WIRE -240 800 -304 800
WIRE -80 800 -80 720
WIRE -80 800 -240 800
WIRE -240 864 -240 800
WIRE -176 864 -240 864
WIRE -16 864 -96 864
WIRE 48 864 48 752
WIRE -464 1072 -464 800
WIRE 976 1072 -464 1072
WIRE 1216 1072 1216 864
WIRE 1216 1072 976 1072
FLAG -176 448 0
FLAG 64 320 gateLS
FLAG 80 208 gateHS
FLAG 352 192 isense
FLAG 192 32 sourceHS
FLAG 1040 96 out
FLAG 16 656 isense
FLAG 416 656 isensa
FLAG 416 688 clk
FLAG 416 720 pwm
FLAG 416 784 0
FLAG 656 768 0
FLAG 656 672 pwm
FLAG 1024 768 0
FLAG 1024 656 gateHS
FLAG 1024 720 gateLS
FLAG 1024 688 sourceHS
FLAG 656 720 0
FLAG -176 96 vin
FLAG 976 1072 in1
FLAG 768 48 0
FLAG 976 -144 in
SYMBOL ind 624 112 R270
WINDOW 0 32 56 VTop 2
WINDOW 3 5 56 VBottom 2
SYMATTR InstName L1
SYMATTR Value {ind}
SYMBOL res 608 80 R90
WINDOW 0 0 56 VBottom 2
WINDOW 3 32 56 VTop 2
SYMATTR InstName R1
SYMATTR Value {RL}
SYMBOL cap 752 128 R0
SYMATTR InstName C1
SYMATTR Value {cap1}
SYMBOL res 752 208 R0
SYMATTR InstName R2
SYMATTR Value {RC1}
SYMBOL ind 752 320 R0
SYMATTR InstName ESL1
SYMATTR Value {RL1}
SYMBOL res 896 208 R0
SYMATTR InstName R3
SYMATTR Value {RC2}
SYMBOL cap 896 128 R0
SYMATTR InstName C2
SYMATTR Value {cap2}
SYMBOL ind 896 320 R0
SYMATTR InstName ESL2
SYMATTR Value {RL2}
SYMBOL res 1024 208 R0
SYMATTR InstName Rload
SYMATTR Value 1.45
SYMBOL voltage -176 192 R0
WINDOW 123 24 124 Left 2
WINDOW 39 0 0 Left 0
SYMATTR InstName V1
SYMATTR Value 48
SYMBOL res -80 848 R90
WINDOW 0 0 56 VBottom 2
WINDOW 3 32 56 VTop 2
SYMATTR InstName R5
SYMATTR Value 16k
SYMBOL cap 48 848 R90
WINDOW 0 0 32 VBottom 2
WINDOW 3 32 32 VTop 2
SYMATTR InstName C3
SYMATTR Value 10n
SYMBOL res -288 784 R90
WINDOW 0 0 56 VBottom 2
WINDOW 3 32 56 VTop 2
SYMATTR InstName R6
SYMATTR Value 16k
SYMBOL MyCMC 176 752 R0
WINDOW 3 -68 70 Left 2
WINDOW 123 -68 42 Left 2
SYMATTR Value f={fs} Vcc=15
SYMATTR Value2 ma=2.13e4
SYMATTR InstName U2
SYMBOL MyDriverHB 864 704 R0
SYMATTR InstName U3
SYMATTR Value2 Tau=75n
SYMBOL Control\\isense 352 96 R0
SYMATTR InstName U1
SYMBOL Control\\constant -128 688 R0
WINDOW 3 -4 64 Bottom 2
SYMATTR Value K=12
SYMATTR InstName U4
SYMBOL irfbsl4310 256 288 R0
WINDOW 3 -138 56 Top 2
SYMATTR InstName U5
SYMBOL irfbsl4310 48 32 R270
WINDOW 3 -4 -4 VBottom 2
SYMATTR InstName U6
SYMBOL voltage 1216 768 R0
WINDOW 123 0 0 Left 0
WINDOW 39 0 0 Left 0
SYMATTR InstName V2
SYMATTR Value SINE(0 0.1 {Freq})
SYMBOL Misc\\Epoly 768 -112 R0
WINDOW 0 48 44 Left 2
WINDOW 3 41 72 Left 2
SYMATTR InstName Eb1
SYMATTR Value value={-V(in1)}
TEXT 1320 408 Left 2 !.measure Aavg              avg       V(out)                                                                ; average output voltage\n.measure Bavg              avg       V(in)                                                                   ; average input signal\n.measure Are                  avg       2*(V(out)-Aavg)*cos(360*Freq*time)      ; A real part\n.measure Aim                 avg       2*(V(out)-Aavg)*sin(360*Freq*time)        ; A imag part\n.measure Bre                  avg       2*(V(in)-Bavg)*cos(360*Freq*time)         ; B real part\n.measure Bim                 avg        2*(V(in)-Bavg)*sin(360*Freq*time)          ; B imag part\n.measure Amag             param   hypot(Are,Aim)                                              ; A magnitude\n.measure Bmag             param   hypot(Bre,Bim)                                              ; B magnitude\n.measure Aphi                param   atan2(Aim, Are)                                             ; A phase\n.measure Bphi                param   atan2(Bim, Bre)                                             ; B phase\n.measure GainMag       param    20*log10(Amag/Bmag)                              ; Gain magnitude\n.measure GainPhi          param    Bphi - Aphi                                                       ; Gain phase
TEXT 1800 256 Left 2 !.save V(out) V(in)\n.option numdgt=15   ; double precision for data\n.option nomarch       ; do not plot marching waveforms
TEXT 1320 304 Left 2 !.step dec param Freq 100 200k 20
TEXT 1312 144 Left 2 !.param t0=1m\n.tran 0 {t0+5/Freq} {t0} 0.05u uic
TEXT 1312 232 Left 2 !.options reltol=1m
TEXT 1312 40 Left 2 !.param RL=0 ind=0
TEXT 1312 72 Left 2 !.param cap1=0 RC1=0 RL1 = 0
TEXT 1312 104 Left 2 !.param cap2=0 RC2=0 RL2=0
