Version 4
SHEET 1 1720 1084
WIRE -32 128 -208 128
WIRE 160 128 160 64
WIRE 160 128 48 128
WIRE 480 128 160 128
WIRE 608 128 560 128
WIRE 736 128 688 128
WIRE 1008 128 736 128
WIRE 736 160 736 128
WIRE -208 240 -208 128
WIRE 48 240 48 192
WIRE 736 256 736 224
WIRE 1008 256 1008 128
WIRE 160 272 160 128
WIRE 96 352 32 352
WIRE 736 368 736 336
WIRE -208 448 -208 320
WIRE 160 448 160 352
WIRE 160 448 -208 448
WIRE 736 448 160 448
WIRE 1008 448 1008 336
WIRE 1008 448 736 448
WIRE -208 480 -208 448
WIRE -96 624 -96 592
WIRE 896 640 800 640
WIRE 624 656 528 656
WIRE 896 672 800 672
WIRE 624 688 528 688
WIRE 528 704 528 688
WIRE 896 704 800 704
WIRE 624 736 528 736
WIRE 896 736 800 736
WIRE 528 752 528 736
WIRE 896 752 896 736
WIRE -96 784 -96 704
FLAG -208 480 0
FLAG 32 352 gateLS
FLAG 48 240 gateHS
FLAG 160 64 sourceHS
FLAG 1008 128 out
FLAG -208 128 vin
FLAG 528 752 0
FLAG 528 656 pwm
FLAG 896 752 0
FLAG 896 640 gateHS
FLAG 896 704 gateLS
FLAG 896 672 sourceHS
FLAG 528 704 0
FLAG -96 784 0
FLAG -96 592 pwm
SYMBOL ind 592 144 R270
WINDOW 0 32 56 VTop 2
WINDOW 3 5 56 VBottom 2
SYMATTR InstName L1
SYMATTR Value {ind}
SYMBOL res 576 112 R90
WINDOW 0 0 56 VBottom 2
WINDOW 3 32 56 VTop 2
SYMATTR InstName R1
SYMATTR Value {RL}
SYMBOL cap 720 160 R0
SYMATTR InstName C1
SYMATTR Value {cap1}
SYMBOL res 720 240 R0
SYMATTR InstName R2
SYMATTR Value {RC1}
SYMBOL ind 720 352 R0
SYMATTR InstName ESL1
SYMATTR Value {RL1}
SYMBOL res 992 240 R0
SYMATTR InstName Rload1
SYMATTR Value 1.45
SYMBOL voltage -208 224 R0
WINDOW 123 24 124 Left 2
WINDOW 39 0 0 Left 0
SYMATTR Value2 AC 1
SYMATTR InstName V1
SYMATTR Value 48
SYMBOL irfbsl4310 224 320 R0
WINDOW 3 -138 56 Top 2
SYMATTR InstName U2
SYMBOL irfbsl4310 16 64 R270
WINDOW 3 -4 -4 VBottom 2
SYMATTR InstName U3
SYMBOL MyDriverHB 736 688 R0
SYMATTR InstName U4
SYMATTR Value2 Tau=75n
SYMBOL voltage -96 608 R0
WINDOW 123 0 0 Left 0
WINDOW 39 0 0 Left 0
SYMATTR InstName V2
SYMATTR Value PULSE(0 15 1m 1n 1n {ton} {Ts})
TEXT -184 -240 Left 2 !.param RL=0.000001 ind=281.3u
TEXT -184 -208 Left 2 !.param cap1=112e-6 RC1=0.00001 RL1=1e-7
TEXT -184 -176 Left 2 ;.param cap2=56e-6 RC2=0.00001 RL2=1e-7
TEXT -184 -296 Left 2 ;.ac dec 101 1 50K
TEXT -184 -112 Left 2 !.param ton=0.25*(({RL}+{Ron})/1.45+1)*1/{fs}
TEXT -184 -144 Left 2 !.param Ts=1/{fs} Ron=5.6e-3
TEXT -184 -264 Left 2 !.param fs =36.6k
TEXT 472 -160 Left 2 !.options reltol=12m
TEXT 472 -112 Left 2 !.tran 0 10m 6m 0.1u uic
